Version 4
SHEET 1 2712 3216
WIRE 288 -208 96 -208
WIRE 736 -176 496 -176
WIRE 416 -160 384 -160
WIRE 496 -160 496 -176
WIRE 736 -160 736 -176
WIRE -176 -144 -256 -144
WIRE -32 -144 -96 -144
WIRE 720 -144 704 -144
WIRE 816 -144 800 -160
WIRE 96 -128 96 -208
WIRE 288 -128 288 -208
WIRE 288 -128 96 -128
WIRE 352 -112 0 -112
WIRE -880 -96 -880 -176
WIRE -880 -96 -1152 -96
WIRE -928 -48 -1104 -48
WIRE -672 -48 -832 -48
WIRE -1152 -16 -1152 -96
WIRE -1104 -16 -1104 -48
WIRE -1104 -16 -1152 -16
WIRE -880 -16 -880 -96
WIRE -832 -16 -832 -48
WIRE -832 -16 -880 -16
WIRE -672 -16 -672 -48
WIRE -640 -16 -672 -16
WIRE -160 -16 -224 -16
WIRE 0 -16 0 -112
WIRE 352 -16 352 -112
WIRE 352 -16 0 -16
WIRE 608 -16 592 -16
WIRE 960 -16 912 -16
WIRE -928 0 -928 -48
WIRE -912 0 -928 0
WIRE 352 16 0 16
WIRE -1104 32 -1104 -16
WIRE -1008 32 -1104 32
WIRE -928 32 -928 0
WIRE -928 32 -1008 32
WIRE -832 32 -832 -16
WIRE -752 32 -832 32
WIRE -672 32 -672 -16
WIRE -672 32 -752 32
WIRE -912 48 -912 0
WIRE -640 48 -640 -16
WIRE -32 80 -32 -144
WIRE 0 80 0 16
WIRE 0 80 -32 80
WIRE 352 80 352 16
WIRE 384 80 384 -160
WIRE 384 80 352 80
WIRE 0 144 0 80
WIRE 352 144 352 80
WIRE 352 144 0 144
WIRE 608 192 592 192
WIRE -96 256 -128 256
WIRE -32 256 -96 256
WIRE 416 256 352 256
WIRE 464 256 416 256
WIRE 608 272 576 272
WIRE 416 288 416 256
WIRE -96 304 -96 256
WIRE 48 320 48 272
WIRE 48 320 -32 320
WIRE 304 320 304 272
WIRE 352 320 352 304
WIRE 352 320 304 320
WIRE 816 416 816 400
WIRE 992 416 816 416
WIRE -400 432 -400 400
WIRE -224 432 -336 432
WIRE 528 432 528 192
WIRE 752 432 528 432
WIRE -592 448 -592 192
WIRE -400 448 -592 448
WIRE -1168 464 -1296 464
WIRE -1056 464 -1104 464
WIRE -1008 464 -1056 464
WIRE -992 464 -1008 464
WIRE -928 464 -944 464
WIRE -864 464 -928 464
WIRE -800 464 -864 464
WIRE -784 464 -800 464
WIRE -432 464 -736 464
WIRE -416 464 -432 464
WIRE -368 464 -384 464
WIRE -320 464 -368 464
WIRE 464 464 464 320
WIRE 720 464 464 464
WIRE 736 464 720 464
WIRE 784 464 768 464
WIRE 848 464 784 464
WIRE 640 480 416 480
WIRE -496 496 -624 496
WIRE -400 496 -400 448
WIRE -400 496 -496 496
WIRE -320 496 -320 464
WIRE -320 496 -400 496
WIRE -288 496 -320 496
WIRE 640 496 640 480
WIRE 640 496 528 496
WIRE 752 496 752 432
WIRE 752 496 640 496
WIRE 848 496 848 464
WIRE 848 496 752 496
WIRE 880 496 848 496
WIRE -1136 544 -1136 480
WIRE -1120 544 -1120 480
WIRE -624 544 -624 496
WIRE -624 544 -672 544
WIRE -608 544 -624 544
WIRE -576 544 -608 544
WIRE -544 544 -576 544
WIRE -400 544 -400 496
WIRE -320 544 -320 496
WIRE 544 544 448 544
WIRE 576 544 544 544
WIRE 608 544 576 544
WIRE 640 544 640 496
WIRE 752 544 752 496
WIRE -496 560 -496 496
WIRE -320 560 -496 560
WIRE 848 560 848 496
WIRE 848 560 640 560
WIRE -624 624 -624 544
WIRE -624 624 -672 624
WIRE -608 624 -608 608
WIRE -608 624 -624 624
WIRE -560 624 -576 608
WIRE -560 624 -608 624
WIRE -544 624 -560 624
WIRE 544 624 544 608
WIRE 544 624 464 624
WIRE 576 624 576 608
WIRE 576 624 544 624
WIRE 608 624 576 624
WIRE -624 672 -624 624
WIRE -496 672 -496 624
WIRE -496 672 -624 672
WIRE -400 672 -400 624
WIRE -400 672 -496 672
WIRE -320 672 -320 560
WIRE -320 672 -400 672
WIRE -288 672 -288 496
WIRE -288 672 -320 672
WIRE 528 672 528 496
WIRE 640 672 640 560
WIRE 640 672 528 672
WIRE 752 672 752 608
WIRE 752 672 640 672
WIRE 848 672 848 608
WIRE 848 672 752 672
WIRE 880 672 880 496
WIRE 880 672 848 672
WIRE -320 688 -320 672
WIRE 960 688 848 688
WIRE 976 688 960 688
WIRE 1216 688 1024 688
WIRE -320 704 -320 688
WIRE 1024 704 1024 688
WIRE -400 720 -400 672
WIRE -224 720 -224 432
WIRE -224 720 -400 720
WIRE 752 720 752 672
WIRE 992 720 992 416
WIRE 992 720 752 720
WIRE -128 736 -128 256
WIRE -128 736 -320 736
WIRE -496 784 -496 672
WIRE -496 784 -1200 784
WIRE 640 784 560 784
WIRE 752 784 640 784
WIRE 912 784 752 784
WIRE 976 816 976 784
WIRE 752 832 752 784
WIRE 944 832 832 832
WIRE -576 896 -672 896
WIRE 944 896 944 832
WIRE 976 896 944 896
WIRE -672 912 -672 896
WIRE -336 912 -352 912
WIRE -304 912 -336 912
WIRE -112 912 -192 912
WIRE 752 912 640 912
WIRE 832 912 832 832
WIRE 832 912 752 912
WIRE 880 912 832 912
WIRE -912 928 -912 912
WIRE 976 928 976 896
WIRE -224 944 -224 896
WIRE -192 944 -192 912
WIRE -192 944 -224 944
WIRE -80 944 -128 944
WIRE -16 944 -80 944
WIRE 48 944 48 880
WIRE 144 944 128 944
WIRE 208 944 144 944
WIRE 288 944 208 944
WIRE 976 944 976 928
WIRE -192 960 -192 944
WIRE -144 960 -192 960
WIRE -112 960 -112 912
WIRE -112 960 -144 960
WIRE 944 960 944 896
WIRE 944 960 912 960
WIRE 1008 960 944 960
WIRE 1072 960 1008 960
WIRE -512 976 -576 976
WIRE 832 976 832 912
WIRE 832 976 752 976
WIRE -256 992 -304 992
WIRE -64 992 -144 992
WIRE 912 992 912 960
WIRE 912 992 880 992
WIRE 976 992 976 976
WIRE 288 1024 240 1024
WIRE 304 1024 288 1024
WIRE -576 1056 -624 1056
WIRE 416 1056 416 480
WIRE 608 1056 416 1056
WIRE 752 1056 752 976
WIRE 832 1056 832 976
WIRE 944 1056 944 960
WIRE 944 1056 832 1056
WIRE -304 1072 -336 1072
WIRE 928 1072 928 1024
WIRE -464 1088 -496 1088
WIRE -144 1088 -144 992
WIRE -144 1088 -192 1088
WIRE -128 1088 -144 1088
WIRE -1200 1104 -1200 784
WIRE -1152 1104 -1200 1104
WIRE -1104 1104 -1152 1104
WIRE -1088 1104 -1104 1104
WIRE -1024 1104 -1040 1104
WIRE -960 1104 -1024 1104
WIRE -896 1104 -960 1104
WIRE -832 1104 -896 1104
WIRE -704 1104 -704 1056
WIRE -640 1104 -704 1104
WIRE -304 1104 -304 1072
WIRE 288 1120 288 1104
WIRE 240 1136 240 1024
WIRE 240 1136 96 1136
WIRE 656 1136 576 1136
WIRE 752 1136 752 1056
WIRE 832 1136 752 1136
WIRE 848 1136 832 1136
WIRE 976 1136 976 992
WIRE 976 1136 928 1136
WIRE -416 1152 -416 1072
WIRE -416 1152 -464 1152
WIRE -368 1152 -416 1152
WIRE 352 1152 352 1120
WIRE 368 1152 352 1152
WIRE 384 1152 368 1152
WIRE 512 1152 464 1152
WIRE -560 1168 -624 1168
WIRE -192 1168 -192 1152
WIRE -800 1184 -800 1120
WIRE -784 1184 -784 1120
WIRE 288 1184 288 1120
WIRE 352 1184 352 1152
WIRE 832 1184 832 1136
WIRE 880 1184 880 1152
WIRE 880 1184 832 1184
WIRE -256 1216 -256 1056
WIRE -128 1216 -128 1168
WIRE -128 1216 -256 1216
WIRE 48 1216 -128 1216
WIRE -1296 1264 -1296 464
WIRE -576 1264 -1296 1264
WIRE -304 1280 -240 1248
WIRE 656 1296 656 1136
WIRE 656 1296 -752 1296
WIRE 768 1296 704 1296
WIRE 848 1296 768 1296
WIRE -784 1328 -1168 1328
WIRE -656 1328 -720 1328
WIRE 992 1344 832 1344
WIRE 768 1376 768 1296
WIRE -752 1392 -752 1296
WIRE -752 1392 -880 1392
WIRE -656 1392 -656 1328
WIRE -656 1392 -752 1392
WIRE -576 1392 -576 1328
WIRE -576 1392 -656 1392
WIRE -544 1392 -576 1392
WIRE -1168 1408 -1168 1328
WIRE 928 1408 928 1392
WIRE 992 1408 992 1344
WIRE 1056 1408 1056 1392
WIRE 576 1424 544 1424
WIRE 704 1424 704 1376
WIRE 704 1424 640 1424
WIRE -880 1440 -880 1392
WIRE -880 1440 -928 1440
WIRE -864 1440 -880 1440
WIRE -832 1440 -864 1440
WIRE -800 1440 -832 1440
WIRE -656 1440 -656 1392
WIRE -576 1440 -576 1392
WIRE -752 1456 -752 1392
WIRE 768 1488 768 1472
WIRE 768 1488 592 1488
WIRE -880 1520 -880 1440
WIRE -880 1520 -928 1520
WIRE -864 1520 -864 1504
WIRE -864 1520 -880 1520
WIRE -816 1520 -832 1504
WIRE -816 1520 -864 1520
WIRE -800 1520 -816 1520
WIRE 496 1552 496 1520
WIRE 512 1552 496 1552
WIRE -880 1568 -880 1520
WIRE -752 1568 -752 1520
WIRE -752 1568 -880 1568
WIRE -656 1568 -656 1520
WIRE -656 1568 -752 1568
WIRE -576 1568 -576 1520
WIRE -576 1568 -656 1568
WIRE -544 1568 -544 1392
WIRE -544 1568 -576 1568
WIRE 432 1568 432 1520
WIRE 512 1568 512 1552
WIRE 592 1568 512 1568
WIRE 640 1568 592 1568
WIRE -752 1616 -752 1568
WIRE -656 1616 -656 1568
WIRE -576 1616 -576 1568
WIRE 432 1616 432 1568
WIRE 528 1616 432 1616
WIRE 832 1616 832 1344
WIRE 832 1616 704 1616
WIRE 928 1664 928 1632
WIRE 928 1664 752 1664
WIRE 992 1696 992 1632
WIRE 992 1696 960 1696
WIRE 752 1792 752 1664
WIRE 1184 1792 752 1792
WIRE 1200 1792 1184 1792
WIRE 1248 1792 1232 1792
WIRE 1296 1792 1248 1792
WIRE 1312 1792 1296 1792
WIRE 368 1856 368 1616
WIRE 1216 1856 1216 688
WIRE 1216 1856 368 1856
FLAG 416 368 0
FLAG 352 368 0
FLAG 240 336 0
FLAG 176 336 0
FLAG 112 336 0
FLAG -32 384 0
FLAG -96 384 0
FLAG -528 336 0
FLAG 576 336 0
FLAG 496 -80 0
FLAG 416 -80 0
FLAG -96 -64 0
FLAG -176 -64 0
FLAG -160 -16 8VDC
FLAG 960 -16 8VDC
FLAG -528 -16 0
FLAG 592 -16 0
FLAG -416 -208 0
FLAG 640 -144 0
FLAG -656 672 0
FLAG 480 656 0
FLAG 928 1072 0
FLAG 1072 1024 0
FLAG 1008 1040 0
FLAG 640 848 0
FLAG 560 848 0
FLAG -800 528 0
FLAG -864 528 0
FLAG -928 544 0
FLAG -1008 528 0
FLAG -1056 528 0
FLAG -1104 544 0
FLAG -1168 544 0
FLAG -896 1168 0
FLAG -960 1168 0
FLAG -1104 1168 0
FLAG -1152 1168 0
FLAG -1200 1184 0
FLAG -768 1184 0
FLAG -832 1184 0
FLAG -704 1184 0
FLAG -576 1232 0
FLAG -624 1232 0
FLAG -672 976 0
FLAG -512 1120 0
FLAG -416 1232 0
FLAG -240 1248 0
FLAG -336 976 0
FLAG -192 1168 0
FLAG -144 960 0
FLAG 96 1232 0
FLAG -80 1024 0
FLAG -16 1008 0
FLAG 48 1008 0
FLAG 144 1008 0
FLAG 208 1008 0
FLAG 368 1216 0
FLAG 464 1216 0
FLAG 512 1216 0
FLAG 592 1216 0
FLAG -912 1568 0
FLAG -1168 1472 0
FLAG 1056 1392 0
FLAG 1056 1696 0
FLAG 928 1392 0
FLAG 592 1664 0
FLAG 704 1648 0
FLAG 544 1424 0
FLAG 960 1760 0
FLAG 1296 1936 0
FLAG 1376 1840 0
FLAG -1008 32 0
FLAG -752 32 0
SYMBOL cap 96 272 R0
WINDOW 0 1582 123 Left 2
WINDOW 3 1537 76 Left 2
SYMATTR InstName C5
SYMBOL cap 160 272 R0
WINDOW 0 1804 -218 Left 2
WINDOW 3 1536 62 Left 2
SYMATTR InstName C6
SYMBOL cap 224 272 R0
WINDOW 0 1430 89 Left 2
WINDOW 3 1434 150 Left 2
SYMATTR InstName C7
SYMBOL cap -48 320 R0
WINDOW 0 1712 209 Left 2
WINDOW 3 1914 247 Left 2
SYMATTR InstName C8
SYMBOL cap -48 256 R0
WINDOW 0 1700 243 Left 2
WINDOW 3 2057 41 Left 2
SYMATTR InstName C9
SYMBOL cap 336 304 R0
WINDOW 0 1351 178 Left 2
WINDOW 3 1675 -171 Left 2
SYMATTR InstName C10
SYMBOL cap 336 256 R0
WINDOW 0 1326 337 Left 2
WINDOW 3 1793 64 Left 2
SYMATTR InstName C11
SYMBOL ind -112 288 R0
WINDOW 0 1823 260 Left 2
WINDOW 3 1737 177 Left 2
SYMATTR InstName L1
SYMBOL ind 400 272 R0
WINDOW 0 1470 92 Left 2
WINDOW 3 1299 165 Left 2
SYMATTR InstName L2
SYMBOL Bill\ Files\\sa612 -368 96 R90
SYMATTR InstName U1
SYMBOL Bill\ Files\\sa612 768 96 R90
SYMATTR InstName U3
SYMBOL cap -336 416 R90
WINDOW 0 -351 1570 VBottom 2
WINDOW 3 -525 1551 VTop 2
SYMATTR InstName C12
SYMATTR Value .1µF
SYMBOL cap -528 176 R90
WINDOW 0 -229 1596 VBottom 2
WINDOW 3 32 32 VTop 2
SYMATTR InstName C13
SYMATTR Value .1µF
SYMBOL cap -544 272 R0
WINDOW 0 -1542 -227 Left 2
WINDOW 3 36 29 Left 2
SYMATTR InstName C14
SYMATTR Value .1µF
SYMBOL cap 592 176 R90
WINDOW 0 -286 -1338 VBottom 2
WINDOW 3 41 21 VTop 2
SYMATTR InstName C15
SYMATTR Value 100µF
SYMBOL cap 560 272 R0
WINDOW 0 1085 -344 Left 2
SYMATTR InstName C16
SYMATTR Value .1µF
SYMBOL cap 448 256 R0
WINDOW 0 1499 -309 Left 2
SYMATTR InstName C17
SYMATTR Value .1µF
SYMBOL res -192 -160 R0
WINDOW 0 -1503 -86 Left 2
WINDOW 3 -1688 146 Left 2
SYMATTR InstName R1
SYMBOL res -112 -160 R0
WINDOW 0 -1799 -11 Left 2
WINDOW 3 -1686 -113 Left 2
SYMATTR InstName R2
SYMATTR Value 2200
SYMBOL res -80 -160 R90
WINDOW 0 -144 1677 VBottom 2
WINDOW 3 34 1744 VTop 2
SYMATTR InstName R3
SYMBOL res 400 -176 R0
WINDOW 0 1252 -93 Left 2
SYMATTR InstName R4
SYMATTR Value 2200
SYMBOL res 480 -176 R0
WINDOW 0 1180 -156 Left 2
SYMATTR InstName R5
SYMATTR Value 2200
SYMBOL res 512 -176 R90
WINDOW 0 -194 -1143 VBottom 2
WINDOW 3 -243 -1210 VTop 2
SYMATTR InstName R6
SYMBOL cap -256 -160 R90
WINDOW 0 85 1566 VBottom 2
WINDOW 3 -41 32 VTop 2
SYMATTR InstName C18
SYMATTR Value .001µF
SYMBOL cap -432 -208 R0
WINDOW 0 -1385 47 Left 2
SYMATTR InstName C19
SYMATTR Value .01µF
SYMBOL cap 800 -176 R90
WINDOW 0 -3 -1093 VBottom 2
WINDOW 3 32 32 VTop 2
SYMATTR InstName C20
SYMATTR Value .1µF
SYMBOL cap 704 -160 R90
WINDOW 0 -81 -1237 VBottom 2
WINDOW 3 -39 35 VTop 2
SYMATTR InstName C21
SYMATTR Value .01µF
SYMBOL ind -560 528 R0
WINDOW 0 -1396 -588 Left 2
WINDOW 3 -1424 -429 Left 2
SYMATTR InstName L3
SYMBOL ind 592 528 R0
WINDOW 0 1842 158 Left 2
WINDOW 3 1682 114 Left 2
SYMATTR InstName L4
SYMBOL cap -624 544 R0
WINDOW 0 -1370 -337 Left 2
WINDOW 3 -1323 -456 Left 2
SYMATTR InstName C22
SYMBOL diode -560 608 R180
WINDOW 0 1340 377 Left 2
WINDOW 3 1431 563 Left 2
SYMATTR InstName D1
SYMBOL diode 592 608 R180
WINDOW 0 -1469 65 Left 2
WINDOW 3 -1262 31 Left 2
SYMATTR InstName D2
SYMBOL cap 528 544 R0
WINDOW 0 1343 -62 Left 2
WINDOW 3 1423 38 Left 2
SYMATTR InstName C23
SYMBOL res 864 896 R0
WINDOW 0 1039 -111 Left 2
WINDOW 3 1037 -69 Left 2
SYMATTR InstName R7
SYMBOL cap 1056 960 R0
WINDOW 0 834 -88 Left 2
WINDOW 3 853 -36 Left 2
SYMATTR InstName C25
SYMBOL res 992 944 R0
WINDOW 0 891 44 Left 2
WINDOW 3 917 68 Left 2
SYMATTR InstName R9
SYMBOL res 944 1120 R90
WINDOW 0 92 -1008 VBottom 2
WINDOW 3 16 -994 VTop 2
SYMATTR InstName R11
SYMBOL res 960 800 R0
WINDOW 0 994 288 Left 2
WINDOW 3 951 276 Left 2
SYMATTR InstName R8
SYMBOL cap 976 768 R90
WINDOW 0 299 -942 VBottom 2
WINDOW 3 647 -1090 VTop 2
SYMATTR InstName C24
SYMBOL res 736 816 R0
WINDOW 0 1216 487 Left 2
WINDOW 3 1277 502 Left 2
SYMATTR InstName R12
SYMBOL cap 624 784 R0
WINDOW 0 1483 -73 Left 2
WINDOW 3 1515 -36 Left 2
SYMATTR InstName C27
SYMATTR Value .001µF
SYMBOL cap -736 448 R90
WINDOW 0 -315 1317 VBottom 2
WINDOW 3 -328 1206 VTop 2
SYMATTR InstName C28
SYMBOL cap -816 464 R0
WINDOW 0 -1256 -377 Left 2
WINDOW 3 -1173 -397 Left 2
SYMATTR InstName C29
SYMBOL cap -880 464 R0
WINDOW 0 -895 -665 Left 2
WINDOW 3 -1014 -453 Left 2
SYMATTR InstName C30
SYMBOL ind -944 448 R0
WINDOW 0 -991 -442 Left 2
WINDOW 3 -962 -470 Left 2
SYMATTR InstName L5
SYMBOL cap -928 448 R90
WINDOW 0 -683 944 VBottom 2
WINDOW 3 -644 928 VTop 2
SYMATTR InstName C31
SYMBOL cap -1024 464 R0
WINDOW 0 -974 -710 Left 2
WINDOW 3 -808 -447 Left 2
SYMATTR InstName C32
SYMBOL cap -1072 464 R0
WINDOW 0 -746 -699 Left 2
WINDOW 3 -957 -292 Left 2
SYMATTR InstName C33
SYMBOL ind -1120 448 R0
WINDOW 0 -805 -604 Left 2
WINDOW 3 -839 -424 Left 2
SYMATTR InstName L6
SYMBOL ind -1184 448 R0
WINDOW 0 -719 -484 Left 2
WINDOW 3 -833 -456 Left 2
SYMATTR InstName L7
SYMBOL cap -912 1104 R0
WINDOW 0 -1064 -808 Left 2
WINDOW 3 -947 -886 Left 2
SYMATTR InstName C35
SYMBOL cap -976 1104 R0
WINDOW 0 -920 -943 Left 2
WINDOW 3 175 -521 Left 2
SYMATTR InstName C36
SYMBOL cap -1024 1088 R90
WINDOW 0 -813 671 VBottom 2
WINDOW 3 -970 735 VTop 2
SYMATTR InstName C37
SYMBOL cap -1120 1104 R0
WINDOW 0 -581 -920 Left 2
WINDOW 3 -653 -805 Left 2
SYMATTR InstName C38
SYMBOL cap -1168 1104 R0
WINDOW 0 -592 -905 Left 2
WINDOW 3 -695 -922 Left 2
SYMATTR InstName C39
SYMBOL ind -1216 1088 R0
WINDOW 0 -665 -793 Left 2
WINDOW 3 -746 -940 Left 2
SYMATTR InstName L9
SYMBOL ind -784 1088 R0
WINDOW 0 -1336 -1076 Left 2
WINDOW 3 -1215 -1156 Left 2
SYMATTR InstName L10
SYMBOL npn -640 1056 R0
WINDOW 0 -316 1711 Left 2
WINDOW 3 -618 1697 Left 2
SYMATTR InstName Q1
SYMBOL npn -368 1104 R0
WINDOW 0 -575 1969 Left 2
WINDOW 3 -116 1562 Left 2
SYMATTR InstName Q2
SYMBOL ind -848 1088 R0
WINDOW 0 -390 1886 Left 2
WINDOW 3 -298 1790 Left 2
SYMATTR InstName L8
SYMBOL cap -704 1088 R90
WINDOW 0 1833 416 VBottom 2
WINDOW 3 1985 680 VTop 2
SYMATTR InstName C34
SYMBOL res -720 1088 R0
WINDOW 0 -207 1658 Left 2
WINDOW 3 -47 1903 Left 2
SYMATTR InstName R13
SYMBOL res -608 1040 R90
WINDOW 0 1745 381 VBottom 2
WINDOW 3 1845 386 VTop 2
SYMATTR InstName R14
SYMBOL res -592 1136 R0
WINDOW 0 43 1770 Left 2
WINDOW 3 -620 1648 Left 2
SYMATTR InstName R15
SYMBOL cap -640 1168 R0
WINDOW 0 -125 1614 Left 2
WINDOW 3 -170 1585 Left 2
SYMATTR InstName C40
SYMBOL ind -592 960 R0
WINDOW 0 106 1875 Left 2
WINDOW 3 -486 2038 Left 2
SYMATTR InstName L11
SYMBOL ind -592 880 R0
WINDOW 0 -161 1995 Left 2
WINDOW 3 -546 2088 Left 2
SYMATTR InstName L12
SYMBOL res -656 880 R90
WINDOW 0 1978 612 VBottom 2
WINDOW 3 2090 543 VTop 2
SYMATTR InstName R16
SYMBOL cap -688 912 R0
WINDOW 0 -527 2220 Left 2
WINDOW 3 -478 1908 Left 2
SYMATTR InstName C41
SYMBOL cap -528 976 R0
WINDOW 0 -534 2132 Left 2
WINDOW 3 -505 1893 Left 2
SYMATTR InstName C42
SYMBOL res -528 1024 R0
WINDOW 0 -289 1814 Left 2
WINDOW 3 -50 1996 Left 2
SYMATTR InstName R17
SYMBOL cap -480 1088 R0
WINDOW 0 -932 1943 Left 2
WINDOW 3 -734 1837 Left 2
SYMATTR InstName C43
SYMBOL res -432 1136 R0
WINDOW 0 -527 1886 Left 2
WINDOW 3 -597 1816 Left 2
SYMATTR InstName R18
SYMBOL res -320 1184 R0
WINDOW 0 -537 1716 Left 2
WINDOW 3 -536 1766 Left 2
SYMATTR InstName R19
SYMBOL res -320 1056 R90
WINDOW 0 1873 967 VBottom 2
WINDOW 3 1994 1052 VTop 2
SYMATTR InstName R20
SYMBOL ind -320 976 R0
WINDOW 0 -126 2222 Left 2
WINDOW 3 -644 1982 Left 2
SYMATTR InstName L13
SYMBOL ind -320 896 R0
WINDOW 0 -120 1889 Left 2
WINDOW 3 -769 1968 Left 2
SYMATTR InstName L14
SYMBOL res -336 896 R90
WINDOW 0 2081 862 VBottom 2
WINDOW 3 1894 764 VTop 2
SYMATTR InstName R21
SYMBOL cap -352 912 R0
WINDOW 0 -723 2256 Left 2
WINDOW 3 -869 2131 Left 2
SYMATTR InstName C44
SYMBOL cap -272 992 R0
WINDOW 0 -179 1931 Left 2
WINDOW 3 -391 1882 Left 2
SYMATTR InstName C45
SYMBOL nmos 48 1136 R0
WINDOW 0 -663 1779 Left 2
WINDOW 3 -669 1721 Left 2
SYMATTR InstName M1
SYMBOL res -144 1072 R0
WINDOW 0 -152 1787 Left 2
WINDOW 3 -782 1765 Left 2
SYMATTR InstName R22
SYMBOL cap -208 1088 R0
WINDOW 0 -595 1958 Left 2
WINDOW 3 -56 1852 Left 2
SYMATTR InstName C46
SYMBOL res -96 928 R0
WINDOW 0 -617 2020 Left 2
WINDOW 3 -611 1907 Left 2
SYMATTR InstName R23
SYMBOL cap -32 944 R0
WINDOW 0 -912 1931 Left 2
WINDOW 3 -827 1901 Left 2
SYMATTR InstName C47
SYMBOL ind 272 1008 R0
WINDOW 0 -1148 1981 Left 2
WINDOW 3 -1038 1948 Left 2
SYMATTR InstName L15
SYMBOL ind 272 928 R0
WINDOW 0 -444 1471 Left 2
WINDOW 3 -923 2024 Left 2
SYMATTR InstName L16
SYMBOL ind 144 928 R90
WINDOW 0 1914 410 VBottom 2
WINDOW 3 1783 -53 VTop 2
SYMATTR InstName L17
SYMBOL cap 32 944 R0
WINDOW 0 -437 2202 Left 2
WINDOW 3 -566 2094 Left 2
SYMATTR InstName C48
SYMBOL cap 128 944 R0
WINDOW 0 -41 1693 Left 2
WINDOW 3 -167 1627 Left 2
SYMATTR InstName C49
SYMBOL cap 192 944 R0
WINDOW 0 -801 1850 Left 2
WINDOW 3 -239 1571 Left 2
SYMATTR InstName C50
SYMBOL Misc\\jumper -256 720 R90
WINDOW 0 -624 1622 Bottom 2
SYMATTR InstName X1
SYMBOL Misc\\jumper -400 400 R0
WINDOW 0 -1446 -508 Bottom 2
SYMATTR InstName X2
SYMBOL Misc\\jumper 752 400 R0
WINDOW 0 1179 346 Bottom 2
SYMATTR InstName X3
SYMBOL Misc\\jumper 1040 960 R90
WINDOW 0 -58 -941 Bottom 2
SYMATTR InstName X4
SYMBOL Misc\\xtal 112 256 R90
WINDOW 0 2545 455 VBottom 2
WINDOW 3 32 32 VTop 2
SYMATTR InstName C1
SYMBOL Misc\\xtal 176 256 R90
WINDOW 0 2138 -46 VBottom 2
WINDOW 3 32 32 VTop 2
SYMATTR InstName C2
SYMBOL Misc\\xtal 240 256 R90
WINDOW 0 2147 203 VBottom 2
WINDOW 3 32 32 VTop 2
SYMATTR InstName C3
SYMBOL Misc\\xtal 304 256 R90
WINDOW 0 2537 618 VBottom 2
WINDOW 3 32 32 VTop 2
SYMATTR InstName C4
SYMBOL cap 352 1104 R90
WINDOW 0 1888 1262 VBottom 2
WINDOW 3 1383 575 VTop 2
SYMATTR InstName C51
SYMBOL cap 352 1168 R90
WINDOW 0 1445 478 VBottom 2
WINDOW 3 1946 670 VTop 2
SYMATTR InstName C52
SYMBOL ind 368 1168 R270
WINDOW 0 -1355 -366 VTop 2
WINDOW 3 -1940 -865 VBottom 2
SYMATTR InstName L18
SYMBOL ind 496 1168 R270
WINDOW 0 -1425 -440 VTop 2
WINDOW 3 -1647 -1191 VBottom 2
SYMATTR InstName L19
SYMBOL cap 352 1152 R0
WINDOW 0 -397 1314 Left 2
WINDOW 3 -1015 1638 Left 2
SYMATTR InstName C53
SYMBOL cap 448 1152 R0
WINDOW 0 -1476 1676 Left 2
WINDOW 3 -740 1898 Left 2
SYMATTR InstName C54
SYMBOL cap 496 1152 R0
WINDOW 0 -1529 1894 Left 2
WINDOW 3 -518 1319 Left 2
SYMATTR InstName C55
SYMBOL cap 576 1152 R0
WINDOW 0 -1462 1625 Left 2
WINDOW 3 -1108 1665 Left 2
SYMATTR InstName C56
SYMBOL res 768 1040 R90
WINDOW 0 -308 -1285 VBottom 2
WINDOW 3 -259 -1268 VTop 2
SYMATTR InstName R10
SYMBOL cap 672 1040 R90
WINDOW 0 -356 -1430 VBottom 2
WINDOW 3 -196 -1386 VTop 2
SYMATTR InstName C26
SYMBOL ind -816 1424 R0
WINDOW 0 2944 -904 Left 2
WINDOW 3 3398 -789 Left 2
SYMATTR InstName L20
SYMBOL cap -880 1440 R0
WINDOW 0 3546 -819 Left 2
WINDOW 3 2940 -809 Left 2
SYMATTR InstName C57
SYMBOL diode -816 1504 R180
WINDOW 0 -3071 986 Left 2
WINDOW 3 -3037 917 Left 2
SYMATTR InstName D3
SYMBOL Misc\\jumper -512 1296 R90
WINDOW 0 -623 -2437 Bottom 2
SYMATTR InstName X5
SYMBOL Misc\\jumper -752 1264 R0
SYMATTR InstName X6
SYMBOL Misc\\DIP8 1024 1520 R90
WINDOW 0 -8 -1166 Center 2
SYMATTR InstName U2
SYMBOL cap 1040 1632 R0
WINDOW 0 1054 -276 Left 2
WINDOW 3 1130 -253 Left 2
SYMATTR InstName C58
SYMBOL npn 528 1568 R0
WINDOW 0 1495 -463 Left 2
WINDOW 3 1514 -252 Left 2
SYMATTR InstName Q3
SYMBOL res 528 1552 R90
WINDOW 0 -136 -1559 VBottom 2
WINDOW 3 -133 -1480 VTop 2
SYMATTR InstName R25
SYMBOL res 576 1472 R0
WINDOW 0 1564 -334 Left 2
WINDOW 3 1767 -427 Left 2
SYMATTR InstName R26
SYMBOL cap 704 1552 R90
WINDOW 0 -279 -1411 VBottom 2
WINDOW 3 -338 -1397 VTop 2
SYMATTR InstName C59
SYMBOL cap 432 1600 R90
WINDOW 0 -139 -1608 VBottom 2
WINDOW 3 -80 -1592 VTop 2
SYMATTR InstName C61
SYMBOL res 688 1552 R0
WINDOW 0 1361 -316 Left 2
WINDOW 3 1425 -232 Left 2
SYMATTR InstName R27
SYMBOL npn 704 1376 R0
WINDOW 0 1367 -313 Left 2
WINDOW 3 1417 -258 Left 2
SYMATTR InstName Q4
SYMBOL cap 496 1504 R90
WINDOW 0 -129 -1507 VBottom 2
WINDOW 3 -33 -1618 VTop 2
SYMATTR InstName C63
SYMBOL cap 640 1408 R90
WINDOW 0 -253 -1469 VBottom 2
WINDOW 3 -71 -1524 VTop 2
SYMATTR InstName C60
SYMBOL res 688 1280 R0
WINDOW 0 1344 -354 Left 2
WINDOW 3 1296 -298 Left 2
SYMATTR InstName R24
SYMBOL cap 944 1696 R0
WINDOW 0 775 -450 Left 2
WINDOW 3 776 -357 Left 2
SYMATTR InstName C62
SYMBOL res 976 1680 R90
WINDOW 0 -374 -801 VBottom 2
WINDOW 3 -548 -721 VTop 2
SYMATTR InstName R28
SYMBOL Misc\\jumper 992 624 R0
WINDOW 0 1353 -77 Bottom 2
SYMATTR InstName X7
SYMBOL Misc\\jumper 1216 1728 R0
SYMATTR InstName X8
SYMBOL res 1280 1776 R0
WINDOW 0 473 -473 Left 2
WINDOW 3 417 -512 Left 2
SYMATTR InstName R29
SYMBOL cap 1280 1872 R0
WINDOW 0 757 -694 Left 2
WINDOW 3 714 -652 Left 2
SYMATTR InstName C64
SYMBOL cap 1376 1776 R90
WINDOW 0 -357 -651 VBottom 2
WINDOW 3 -320 -670 VTop 2
SYMATTR InstName C65
TEXT 704 584 Left 2 ;DPDT RELAY
TEXT -464 584 Left 2 ;DPDT RELAY
TEXT -504 592 Left 2 ;T
TEXT 624 584 Left 2 ;T
TEXT -312 592 Left 2 ;R
TEXT 856 584 Left 2 ;R
TEXT 576 184 Left 2 ;+
TEXT 104 -72 Left 2 ;Arduino Uno
TEXT 144 48 Left 2 ;Si5351
TEXT 160 -168 Left 2 ;OLED
TEXT 8 32 Left 2 ;CLK0
TEXT 288 32 Left 2 ;CLK2
TEXT 16 56 Left 2 ;VFO
TEXT 296 56 Left 2 ;BFO
TEXT 8 96 Left 2 ;18MHz~
TEXT 280 96 Left 2 ;11MHz
TEXT 72 240 Left 2 ;Y1
TEXT 136 240 Left 2 ;Y2
TEXT 200 240 Left 2 ;Y3
TEXT 256 240 Left 2 ;Y4
TEXT -104 416 Left 2 ;L1
TEXT 408 408 Left 2 ;L2
TEXT -16 288 Left 2 ;C1
TEXT -8 360 Left 2 ;C2
TEXT 376 288 Left 2 ;C3
TEXT 368 344 Left 2 ;C4
TEXT 96 208 Left 2 ;Y1 to Y4: 11MHz
TEXT 96 376 Left 2 ;C5
TEXT 160 376 Left 2 ;C6
TEXT 232 376 Left 2 ;C7
TEXT 80 408 Left 2 ;C5 C6 C7: 100 pF
TEXT 104 448 Left 2 ;L1 L2: 10uH
TEXT 104 480 Left 2 ;C1 C3: 30 pF
TEXT 112 520 Left 2 ;C2 C4: 66pF
TEXT -88 -80 Left 2 ;2200
TEXT -176 -72 Left 2 ;2200
TEXT -152 -176 Left 2 ;10k
TEXT 440 -192 Left 2 ;10k
TEXT -712 528 Left 2 ;+12V
TEXT 448 528 Left 2 ;+12V
TEXT -680 648 Left 2 ;PTT
TEXT 464 640 Left 2 ;PTT
TEXT 920 856 Left 2 ;1
TEXT 920 904 Left 2 ;2
TEXT 920 960 Left 2 ;3
TEXT 920 1016 Left 2 ;4
TEXT 848 856 Left 2 ;8
TEXT 848 912 Left 2 ;7
TEXT 848 968 Left 2 ;6
TEXT 848 1024 Left 2 ;5
TEXT 880 944 Left 2 ;10k
TEXT 592 912 Left 2 ;12V
TEXT 1000 864 Left 2 ;1k
TEXT 880 808 Left 2 ;.1uF
TEXT 856 1104 Left 2 ;50kpot
TEXT 688 872 Left 2 ;3.3k
TEXT 1088 1008 Left 2 ;4.7uF
TEXT 1016 992 Left 2 ;10k
TEXT 672 944 Left 2 ;LM741 MIC AMP
TEXT 672 824 Left 2 ;.001uF
TEXT 496 816 Left 2 ;Electret Mic
TEXT -376 400 Left 2 ;.1uF
TEXT -792 432 Left 2 ;.1uF
TEXT -824 560 Left 2 ;3-80 pF
TEXT -888 440 Left 2 ;68pF
TEXT -952 576 Left 2 ;4.5uF
TEXT -984 432 Left 2 ;15pF
TEXT -1032 576 Left 2 ;68pF
TEXT -1080 448 Left 2 ;3-80pF
TEXT -1128 576 Left 2 ;4.5uH
TEXT -1200 432 Left 2 ;2 turns
TEXT -920 1200 Left 2 ;3-80 pF
TEXT -984 1080 Left 2 ;68pF
TEXT -856 1080 Left 2 ;4.5uF
TEXT -1080 1072 Left 2 ;15pF
TEXT -1128 1216 Left 2 ;68pF
TEXT -1176 1088 Left 2 ;3-80pF
TEXT -1224 1216 Left 2 ;4.5uH
TEXT -808 1224 Left 2 ;2 turns
TEXT -688 1032 Left 2 ;22k
TEXT -688 1160 Left 2 ;10k
TEXT -552 1200 Left 2 ;100
TEXT -680 1216 Left 2 ;.1uF
TEXT -720 872 Left 2 ;10
TEXT -744 944 Left 2 ;.1uF
TEXT -856 896 Left 2 ;+12V TX
TEXT -496 1008 Left 2 ;.1uF
TEXT -504 1072 Left 2 ;100 pot
TEXT -408 880 Left 2 ;2.2
TEXT -392 960 Left 2 ;.1uF
TEXT -288 1240 Left 2 ;5
TEXT -456 1200 Left 2 ;100
TEXT -384 1032 Left 2 ;1k
TEXT -464 1104 Left 2 ;.1uF
TEXT -528 912 Left 2 ;+12V TX
TEXT -184 936 Left 2 ;5v reg
TEXT -272 880 Left 2 ;+12V TX
TEXT -128 1056 Left 2 ;10k pot
TEXT -232 1024 Left 2 ;.1uF
TEXT -16 960 Left 2 ;.1uF
TEXT -112 1120 Left 2 ;47
TEXT -248 1104 Left 2 ;.1uF
TEXT -56 864 Left 2 ;+12-24VDC PA POWER
TEXT 56 1112 Left 2 ;IRF510
TEXT 56 992 Left 2 ;470uF
TEXT 64 912 Left 2 ;50uH
TEXT 152 960 Left 2 ;.1uF
TEXT 216 960 Left 2 ;.1uF
TEXT 320 1096 Left 2 ;.1uF
TEXT 296 1216 Left 2 ;.1uF
TEXT 344 1248 Left 2 ;470pF
TEXT 400 1200 Left 2 ;470pF
TEXT 520 1200 Left 2 ;470pF
TEXT 600 1168 Left 2 ;470pF
TEXT 392 1120 Left 2 ;1.1uF
TEXT 536 1120 Left 2 ;1.1uF
TEXT 704 1088 Left 2 ;1k
TEXT 616 1080 Left 2 ;.1uF
TEXT -720 1480 Left 2 ;DPDT RELAY
TEXT -760 1488 Left 2 ;T
TEXT -568 1488 Left 2 ;R
TEXT -936 1544 Left 2 ;PTT
TEXT -952 1416 Left 2 ;+12V
TEXT -1240 1432 Left 2 ;ANTENNA
TEXT -688 1648 Left 2 ;+12V
TEXT -824 1648 Left 2 ;+12V TX
TEXT -600 1648 Left 2 ;+12V RX
TEXT 440 1488 Left 2 ;100pF
TEXT 448 1592 Left 2 ;100k
TEXT 368 1640 Left 2 ;1uF +
TEXT 640 1592 Left 2 ;+ 1uF
TEXT 624 1528 Left 2 ;4.7k
TEXT 872 1288 Left 2 ;+12V
TEXT 768 1696 Left 2 ;+12V RX
TEXT 552 1400 Left 2 ;100uF +
TEXT 648 1336 Left 2 ;47k
TEXT 992 1480 Left 2 ;LM386
TEXT 1312 1824 Left 2 ;10
TEXT 1216 1904 Left 2 ;.22uF
TEXT 1304 1760 Left 2 ;+ 470uF
TEXT 1368 1816 Left 2 ;SPEAKER
TEXT 880 1728 Left 2 ;100
TEXT 976 1744 Left 2 ;470uF
TEXT 1072 1680 Left 2 ;1uF
TEXT -584 872 Left 2 ;T1
TEXT -320 888 Left 2 ;T2
TEXT 288 920 Left 2 ;T3
TEXT -408 824 Left 2 ;T1 T2 T3: 10T Bifilar FT50-43
TEXT 720 1592 Left 2 ;10k POT
TEXT 496 1664 Left 2 ;2n3904
TEXT -616 1112 Left 2 ;2N3904
TEXT -336 1160 Left 2 ;2N2218
TEXT -1056 -8 Left 2 ;5V REG
TEXT -784 -8 Left 2 ;8V REG
TEXT -672 72 Left 2 ;8VDC
TEXT -904 -200 Left 2 ;+12V
TEXT -944 64 Left 2 ;5V DC
TEXT -960 88 Left 2 ;To OLED
TEXT -696 96 Left 2 ;To NE602s
TEXT -1176 1688 Left 2 ;40 Meter SSB Transceiver
TEXT -1136 1720 Left 2 ;Bill Meara N2CQR
TEXT -1112 1752 Left 2 ;3 June 2017
